Version 4
SHEET 1 1636 1500
WIRE -224 128 -336 128
WIRE -112 128 -160 128
WIRE 0 128 0 96
WIRE 0 128 -32 128
WIRE 160 128 0 128
WIRE 256 128 160 128
WIRE -336 160 -336 128
WIRE 0 176 0 128
WIRE 160 192 160 128
WIRE 256 256 256 128
WIRE -336 272 -336 240
WIRE 0 272 0 240
WIRE 160 320 160 256
WIRE 208 320 160 320
WIRE 256 352 256 320
WIRE 368 352 256 352
WIRE 256 384 256 352
WIRE 256 496 256 464
FLAG -336 272 0
FLAG 256 496 0
FLAG 0 96 Out1
FLAG 0 272 0
FLAG 368 352 Out2
SYMBOL cap -16 176 R0
WINDOW 0 -32 8 Left 2
WINDOW 3 -52 53 Left 2
SYMATTR InstName C1
SYMATTR Value .22µ
SYMBOL res -16 112 R90
WINDOW 0 0 56 VBottom 2
WINDOW 3 32 56 VTop 2
SYMATTR InstName R1
SYMATTR Value 11k
SYMBOL res 240 368 R0
SYMATTR InstName R2
SYMATTR Value 22
SYMBOL diode -224 144 R270
WINDOW 0 36 36 VTop 2
WINDOW 3 0 32 VBottom 2
SYMATTR InstName D1
SYMATTR Value 1N4007
SYMBOL voltage -336 144 R0
WINDOW 123 0 0 Left 2
WINDOW 39 0 0 Left 2
WINDOW 3 -336 83 Left 2
WINDOW 0 -75 38 Left 2
SYMATTR Value SINE(0 {120*1.4142} 60)
SYMATTR InstName V1
SYMBOL Zener_DiodesInc 176 256 R180
WINDOW 0 41 55 Left 2
WINDOW 38 23 -4 Left 2
SYMATTR InstName U2
SYMATTR SpiceModel 1N4751A
SYMBOL SCR_lib 240 256 R0
SYMATTR InstName U1
TEXT -384 448 Left 2 !.tran 0 100m 0 10u uic
TEXT 552 256 Left 2 !*SRC=1N4751A;1N4751A;Diodes;Zener 10V-50V; 30.0V  1.00W   Diodes Inc. Zener\n.SUBCKT 1N4751A  1 2\n*        Terminals    A   K\nD1 1 2 DF\nDZ 3 1 DR\nVZ 2 3 27.8\n.MODEL DF D ( IS=13.7p RS=0.620 N=1.10 CJO=46.7p VJ=1.00 M=0.330 TT=50.1n )\n.MODEL DR D ( IS=2.75f RS=2.61 N=2.87 )\n.ENDS
TEXT 552 168 Left 2 !.model 1N4007 D IS=7.02767n RS=0.0341512 N=1.80803 EG=1.05743 XTI=5 \n+ BV=1000 IBV=5e-08 CJO=1e-11 VJ=0.7 M=0.5 FC=0.5 TT=1e-07
TEXT -384 496 Left 2 !.incl Thyristor.lib
