Version 4.1
SHEET 1 1216 680
WIRE 240 112 240 80
WIRE 240 224 240 192
WIRE 64 288 0 288
WIRE 192 288 144 288
WIRE 240 320 240 288
FLAG 240 320 0
FLAG 240 0 0
FLAG 0 368 0
SYMBOL Misc\\SCR 224 224 R0
SYMATTR InstName U1
SYMATTR Value 2N5060
SYMBOL res 160 272 R90
WINDOW 0 0 56 VBottom 2
WINDOW 3 32 56 VTop 2
SYMATTR InstName R1
SYMATTR Value 1k
SYMBOL res 256 208 R180
WINDOW 0 36 76 Left 2
WINDOW 3 36 40 Left 2
SYMATTR InstName R2
SYMATTR Value 5
SYMBOL voltage 240 96 R180
WINDOW 0 24 96 Left 2
WINDOW 3 24 16 Left 2
WINDOW 123 0 0 Left 2
WINDOW 39 0 0 Left 2
SYMATTR InstName V1
SYMATTR Value SINE(0 20 10)
SYMBOL voltage 0 272 R0
WINDOW 123 0 0 Left 2
WINDOW 39 0 0 Left 2
SYMATTR InstName V2
SYMATTR Value PULSE(0 6 .52 10n 10n 1m)
SYMBOL Misc\\SCR 608 48 R0
SYMATTR InstName U2
SYMATTR Value 2N5060
TEXT -280 -96 Left 2 !.lib thyristr.lib
TEXT -280 392 Left 2 !.tran 1
