**********************************
**********************************
**
** Littelfuse, LP
** SCR SPICE Models
** EC103xx-SxSx
**
** T. Chenoski
** Irving Technical Center
**
** A 06/13/08
**
**********************************
**********************************
.SUBCKT EC103D1    1  2             3
*       TERMINALS: A  G             K
Qpnp    6          4  1             Pfor      OFF
Qnpn    4          6  5             Nfor      OFF
Rfor    6          4  5G
Rrev    1          4  5G
Rshort  6          5  1MEG
Rlat    2          6  9.09
Ron     3          5  513.4m
Dfor    6          4  Zbrk
Drev    1          4  Zbrk
Dgate   6          5  Zgate
.MODEL  Zbrk       D  (IS=3.2E-16   IBV=100U  BV=400)
.MODEL  Zgate      D  (IS=1E-16     IBV=100U  BV=10      VJ=0.3)
.MODEL  Pfor       PNP(IS=5E-15     BF=6.10   CJE=5p     CJC=2p     TF=0.3U)
.MODEL  Nfor       NPN(IS=1E-12     ISE=1E-9  BF=10.0    RC=0.45    CJE=30p     CJC=2p      TF=0.3U)
.ENDS

.SUBCKT EC103M1    1  2             3
*       TERMINALS: A  G             K
Qpnp    6          4  1             Pfor      OFF
Qnpn    4          6  5             Nfor      OFF
Rfor    6          4  5G
Rrev    1          4  5G
Rshort  6          5  1MEG
Rlat    2          6  9.09
Ron     3          5  513.4m
Dfor    6          4  Zbrk
Drev    1          4  Zbrk
Dgate   6          5  Zgate
.MODEL  Zbrk       D  (IS=3.2E-16   IBV=100U  BV=600)
.MODEL  Zgate      D  (IS=1E-16     IBV=100U  BV=10      VJ=0.3)
.MODEL  Pfor       PNP(IS=5E-15     BF=6.10   CJE=5p     CJC=2p     TF=0.3U)
.MODEL  Nfor       NPN(IS=1E-12     ISE=1E-9  BF=10.0    RC=0.45    CJE=30p     CJC=2p      TF=0.3U)
.ENDS

.SUBCKT EC103D2    1  2             3
*       TERMINALS: A  G             K
Qpnp    6          4  1             Pfor      OFF
Qnpn    4          6  5             Nfor      OFF
Rfor    6          4  5G
Rrev    1          4  5G
Rshort  6          5  1MEG
Rlat    2          6  9.09
Ron     3          5  513.4m
Dfor    6          4  Zbrk
Drev    1          4  Zbrk
Dgate   6          5  Zgate
.MODEL  Zbrk       D  (IS=3.2E-16   IBV=100U  BV=400)
.MODEL  Zgate      D  (IS=1E-16     IBV=100U  BV=10      VJ=0.3)
.MODEL  Pfor       PNP(IS=5E-15     BF=2.20   CJE=5p     CJC=2p     TF=0.3U)
.MODEL  Nfor       NPN(IS=1E-12     ISE=1E-9  BF=10.0    RC=0.45    CJE=30p     CJC=2p      TF=0.3U)
.ENDS

.SUBCKT EC103M2    1  2             3
*       TERMINALS: A  G             K
Qpnp    6          4  1             Pfor      OFF
Qnpn    4          6  5             Nfor      OFF
Rfor    6          4  5G
Rrev    1          4  5G
Rshort  6          5  1MEG
Rlat    2          6  9.09
Ron     3          5  513.4m
Dfor    6          4  Zbrk
Drev    1          4  Zbrk
Dgate   6          5  Zgate
.MODEL  Zbrk       D  (IS=3.2E-16   IBV=100U  BV=600)
.MODEL  Zgate      D  (IS=1E-16     IBV=100U  BV=10      VJ=0.3)
.MODEL  Pfor       PNP(IS=5E-15     BF=2.20   CJE=5p     CJC=2p     TF=0.3U)
.MODEL  Nfor       NPN(IS=1E-12     ISE=1E-9  BF=10.0    RC=0.45    CJE=30p     CJC=2p      TF=0.3U)
.ENDS

.SUBCKT EC103D     1  2             3
*       TERMINALS: A  G             K
Qpnp    6          4  1             Pfor      OFF
Qnpn    4          6  5             Nfor      OFF
Rfor    6          4  5G
Rrev    1          4  5G
Rshort  6          5  1MEG
Rlat    2          6  9.09
Ron     3          5  513.4m
Dfor    6          4  Zbrk
Drev    1          4  Zbrk
Dgate   6          5  Zgate
.MODEL  Zbrk       D  (IS=3.2E-16   IBV=100U  BV=400)
.MODEL  Zgate      D  (IS=1E-16     IBV=100U  BV=10      VJ=0.3)
.MODEL  Pfor       PNP(IS=5E-15     BF=1.10   CJE=5p     CJC=2p     TF=0.3U)
.MODEL  Nfor       NPN(IS=1E-12     ISE=1E-9  BF=10.0    RC=0.45    CJE=30p     CJC=2p      TF=0.3U)
.ENDS

.SUBCKT EC103M     1  2             3
*       TERMINALS: A  G             K
Qpnp    6          4  1             Pfor      OFF
Qnpn    4          6  5             Nfor      OFF
Rfor    6          4  5G
Rrev    1          4  5G
Rshort  6          5  1MEG
Rlat    2          6  9.09
Ron     3          5  513.4m
Dfor    6          4  Zbrk
Drev    1          4  Zbrk
Dgate   6          5  Zgate
.MODEL  Zbrk       D  (IS=3.2E-16   IBV=100U  BV=600)
.MODEL  Zgate      D  (IS=1E-16     IBV=100U  BV=10      VJ=0.3)
.MODEL  Pfor       PNP(IS=5E-15     BF=1.10   CJE=5p     CJC=2p     TF=0.3U)
.MODEL  Nfor       NPN(IS=1E-12     ISE=1E-9  BF=10.0    RC=0.45    CJE=30p     CJC=2p      TF=0.3U)
.ENDS

.SUBCKT EC103D3    1  2             3
*       TERMINALS: A  G             K
Qpnp    6          4  1             Pfor      OFF
Qnpn    4          6  5             Nfor      OFF
Rfor    6          4  5G
Rrev    1          4  5G
Rshort  6          5  1MEG
Rlat    2          6  9.09
Ron     3          5  513.4m
Dfor    6          4  Zbrk
Drev    1          4  Zbrk
Dgate   6          5  Zgate
.MODEL  Zbrk       D  (IS=3.2E-16   IBV=100U  BV=400)
.MODEL  Zgate      D  (IS=1E-16     IBV=100U  BV=10      VJ=0.3)
.MODEL  Pfor       PNP(IS=5E-15     BF=0.95   CJE=5p     CJC=2p     TF=0.3U)
.MODEL  Nfor       NPN(IS=1E-12     ISE=1E-9  BF=10.0    RC=0.45    CJE=30p     CJC=2p      TF=0.3U)
.ENDS

.SUBCKT EC103M3    1  2             3
*       TERMINALS: A  G             K
Qpnp    6          4  1             Pfor      OFF
Qnpn    4          6  5             Nfor      OFF
Rfor    6          4  5G
Rrev    1          4  5G
Rshort  6          5  1MEG
Rlat    2          6  9.09
Ron     3          5  513.4m
Dfor    6          4  Zbrk
Drev    1          4  Zbrk
Dgate   6          5  Zgate
.MODEL  Zbrk       D  (IS=3.2E-16   IBV=100U  BV=600)
.MODEL  Zgate      D  (IS=1E-16     IBV=100U  BV=10      VJ=0.3)
.MODEL  Pfor       PNP(IS=5E-15     BF=0.95   CJE=5p     CJC=2p     TF=0.3U)
.MODEL  Nfor       NPN(IS=1E-12     ISE=1E-9  BF=10.0    RC=0.45    CJE=30p     CJC=2p      TF=0.3U)
.ENDS

.SUBCKT S4S1       1  2             3
*       TERMINALS: A  G             K
Qpnp    6          4  1             Pfor      OFF
Qnpn    4          6  5             Nfor      OFF
Rfor    6          4  5G
Rrev    1          4  5G
Rshort  6          5  1MEG
Rlat    2          6  9.09
Ron     3          5  513.4m
Dfor    6          4  Zbrk
Drev    1          4  Zbrk
Dgate   6          5  Zgate
.MODEL  Zbrk       D  (IS=3.2E-16   IBV=100U  BV=400)
.MODEL  Zgate      D  (IS=1E-16     IBV=100U  BV=10      VJ=0.3)
.MODEL  Pfor       PNP(IS=5E-15     BF=6.10   CJE=5p     CJC=2p     TF=0.3U)
.MODEL  Nfor       NPN(IS=1E-12     ISE=1E-9  BF=10.0    RC=0.45    CJE=30p     CJC=2p      TF=0.3U)
.ENDS

.SUBCKT S6S1       1  2             3
*       TERMINALS: A  G             K
Qpnp    6          4  1             Pfor      OFF
Qnpn    4          6  5             Nfor      OFF
Rfor    6          4  5G
Rrev    1          4  5G
Rshort  6          5  1MEG
Rlat    2          6  9.09
Ron     3          5  513.4m
Dfor    6          4  Zbrk
Drev    1          4  Zbrk
Dgate   6          5  Zgate
.MODEL  Zbrk       D  (IS=3.2E-16   IBV=100U  BV=600)
.MODEL  Zgate      D  (IS=1E-16     IBV=100U  BV=10      VJ=0.3)
.MODEL  Pfor       PNP(IS=5E-15     BF=6.10   CJE=5p     CJC=2p     TF=0.3U)
.MODEL  Nfor       NPN(IS=1E-12     ISE=1E-9  BF=10.0    RC=0.45    CJE=30p     CJC=2p      TF=0.3U)
.ENDS

.SUBCKT S4S2       1  2             3
*       TERMINALS: A  G             K
Qpnp    6          4  1             Pfor      OFF
Qnpn    4          6  5             Nfor      OFF
Rfor    6          4  5G
Rrev    1          4  5G
Rshort  6          5  1MEG
Rlat    2          6  9.09
Ron     3          5  513.4m
Dfor    6          4  Zbrk
Drev    1          4  Zbrk
Dgate   6          5  Zgate
.MODEL  Zbrk       D  (IS=3.2E-16   IBV=100U  BV=400)
.MODEL  Zgate      D  (IS=1E-16     IBV=100U  BV=10      VJ=0.3)
.MODEL  Pfor       PNP(IS=5E-15     BF=2.20   CJE=5p     CJC=2p     TF=0.3U)
.MODEL  Nfor       NPN(IS=1E-12     ISE=1E-9  BF=10.0    RC=0.45    CJE=30p     CJC=2p      TF=0.3U)
.ENDS

.SUBCKT S6S2       1  2             3
*       TERMINALS: A  G             K
Qpnp    6          4  1             Pfor      OFF
Qnpn    4          6  5             Nfor      OFF
Rfor    6          4  5G
Rrev    1          4  5G
Rshort  6          5  1MEG
Rlat    2          6  9.09
Ron     3          5  513.4m
Dfor    6          4  Zbrk
Drev    1          4  Zbrk
Dgate   6          5  Zgate
.MODEL  Zbrk       D  (IS=3.2E-16   IBV=100U  BV=600)
.MODEL  Zgate      D  (IS=1E-16     IBV=100U  BV=10      VJ=0.3)
.MODEL  Pfor       PNP(IS=5E-15     BF=2.20   CJE=5p     CJC=2p     TF=0.3U)
.MODEL  Nfor       NPN(IS=1E-12     ISE=1E-9  BF=10.0    RC=0.45    CJE=30p     CJC=2p      TF=0.3U)
.ENDS

.SUBCKT S4S        1  2             3
*       TERMINALS: A  G             K
Qpnp    6          4  1             Pfor      OFF
Qnpn    4          6  5             Nfor      OFF
Rfor    6          4  5G
Rrev    1          4  5G
Rshort  6          5  1MEG
Rlat    2          6  9.09
Ron     3          5  513.4m
Dfor    6          4  Zbrk
Drev    1          4  Zbrk
Dgate   6          5  Zgate
.MODEL  Zbrk       D  (IS=3.2E-16   IBV=100U  BV=400)
.MODEL  Zgate      D  (IS=1E-16     IBV=100U  BV=10      VJ=0.3)
.MODEL  Pfor       PNP(IS=5E-15     BF=1.10   CJE=5p     CJC=2p     TF=0.3U)
.MODEL  Nfor       NPN(IS=1E-12     ISE=1E-9  BF=10.0    RC=0.45    CJE=30p     CJC=2p      TF=0.3U)
.ENDS

.SUBCKT S6S        1  2             3
*       TERMINALS: A  G             K
Qpnp    6          4  1             Pfor      OFF
Qnpn    4          6  5             Nfor      OFF
Rfor    6          4  5G
Rrev    1          4  5G
Rshort  6          5  1MEG
Rlat    2          6  9.09
Ron     3          5  513.4m
Dfor    6          4  Zbrk
Drev    1          4  Zbrk
Dgate   6          5  Zgate
.MODEL  Zbrk       D  (IS=3.2E-16   IBV=100U  BV=600)
.MODEL  Zgate      D  (IS=1E-16     IBV=100U  BV=10      VJ=0.3)
.MODEL  Pfor       PNP(IS=5E-15     BF=1.10   CJE=5p     CJC=2p     TF=0.3U)
.MODEL  Nfor       NPN(IS=1E-12     ISE=1E-9  BF=10.0    RC=0.45    CJE=30p     CJC=2p      TF=0.3U)
.ENDS

.SUBCKT S4S3       1  2             3
*       TERMINALS: A  G             K
Qpnp    6          4  1             Pfor      OFF
Qnpn    4          6  5             Nfor      OFF
Rfor    6          4  5G
Rrev    1          4  5G
Rshort  6          5  1MEG
Rlat    2          6  9.09
Ron     3          5  513.4m
Dfor    6          4  Zbrk
Drev    1          4  Zbrk
Dgate   6          5  Zgate
.MODEL  Zbrk       D  (IS=3.2E-16   IBV=100U  BV=400)
.MODEL  Zgate      D  (IS=1E-16     IBV=100U  BV=10      VJ=0.3)
.MODEL  Pfor       PNP(IS=5E-15     BF=0.95   CJE=5p     CJC=2p     TF=0.3U)
.MODEL  Nfor       NPN(IS=1E-12     ISE=1E-9  BF=10.0    RC=0.45    CJE=30p     CJC=2p      TF=0.3U)
.ENDS

.SUBCKT S6S3       1  2             3
*       TERMINALS: A  G             K
Qpnp    6          4  1             Pfor      OFF
Qnpn    4          6  5             Nfor      OFF
Rfor    6          4  5G
Rrev    1          4  5G
Rshort  6          5  1MEG
Rlat    2          6  9.09
Ron     3          5  513.4m
Dfor    6          4  Zbrk
Drev    1          4  Zbrk
Dgate   6          5  Zgate
.MODEL  Zbrk       D  (IS=3.2E-16   IBV=100U  BV=600)
.MODEL  Zgate      D  (IS=1E-16     IBV=100U  BV=10      VJ=0.3)
.MODEL  Pfor       PNP(IS=5E-15     BF=0.95   CJE=5p     CJC=2p     TF=0.3U)
.MODEL  Nfor       NPN(IS=1E-12     ISE=1E-9  BF=10.0    RC=0.45    CJE=30p     CJC=2p      TF=0.3U)
.ENDS




*Default SCR - pin order: A G K
.SUBCKT XSCR  1 2 3
Q1 2 4 1 QPSCR AREA=.67 OFF
Q2 4 2 3 QNSCR AREA=.67
Q3 5 4 1 QPSCR AREA=.33 OFF
Q4 4 5 3 QNSCR AREA=.33
RBN 2 5 40
.MODEL QNSCR NPN(TF=400NS TR=1.6US CJC=75PF CJE=175PF XTB=2.5
+ IS=1E-14 ISE=3E-9 NE=2 BF=100 BR=25 ISC=3E-9 NC=2)
.MODEL QPSCR PNP(TF=90NS TR=180NS CJC=75PF CJE=80PF XTB=2.5 
+ IS=1E-14 ISE=3E-9 NE=2 BF=50 BR=25 ISC=3E-9 NC=2 RE=.03)
.ENDS XSCR

* IR 1200V If=110A tq=16us: A G K
.SUBCKT XS19CF 1 3 2
S1 1 5 6 2 SMOD
RG 3 4 50
VX 4 2 DC 0
VY 5 7 DC 0
DT 7 2 DMOD
RT 6 2 1
CT 6 2 10UF
BF1 2 6 I=50*I(VX)+11*I(VY)
.MODEL SMOD SW(VT=1 RON=0.0105 ROFF=100E5)
.MODEL DMOD D(IS=2.2E-15 BV=1200 TT=0 CJO=0)
.ENDS XS19CF

*Motorola 200V If=1.6A Igt=.2mA Vgt=.8V: A G K
.SUBCKT X2N2326   1 2 3
QP  6 4 1  POUT OFF
QN  4 6 5  NOUT OFF
RF  6 4    40MEG
RR  1 4    26.6MEG
RGK 6 5    2.25k
RG  2 6    51.9
RK  3 5    43.3M
DF  6 4    ZF
DR  1 4    ZR
DGK 6 5    ZGK
.MODEL ZF   D (IS=.64F IBV=1U BV=200 RS=6MEG)
.MODEL ZR   D (IS=.64F IBV=1U BV=266)
.MODEL ZGK  D (IS=.64F IBV=1U BV=5)
.MODEL POUT PNP (IS=640F BF=1 CJE=1.34N)
.MODEL NOUT NPN (IS=640F BF=100 RC=.173
+ CJE=1.34N CJC=268P TF=80.1N TR=11.4U)
.ENDS X2N2326

*300V  8A
.SUBCKT X2N4171  1 2 3
*    TERMINALS:   A G K
QP  6 4 1  POUT OFF
QN  4 6 5  NOUT OFF
RF  6 4    600K
RR  1 4    400K
RGK 6 5    112
RG  2 6    4.61
RK  3 5    8.13M
DF  6 4    ZF
DR  1 4    ZR
DGK 6 5    ZGK
.MODEL ZF   D (IS=3.2F IBV=100U BV=300 RS=90K)
.MODEL ZR   D (IS=3.2F IBV=100U BV=400)
.MODEL ZGK  D (IS=3.2F IBV=100U BV=5)
.MODEL POUT PNP (IS=3.2P BF=1 CJE=670P)
.MODEL NOUT NPN (IS=3.2P BF=100 RC=32.5M
+ CJE=670P CJC=134P TF=179N TR=25.5U)
.ENDS X2N4171 
* C106A  SCR  A G K  MCE  7-17-95
*MCE  100V  4A  pkg:TO-225AA
.SUBCKT XC106A   1 2 3
QP  6 4 1  POUT OFF
QN  4 6 5  NOUT OFF
RF  6 4    22.2MEG
RR  1 4    14.8MEG
RGK 6 5    1.12K
RG  2 6    46.2
RK  3 5    16.2M
DF  6 4    ZF
DR  1 4    ZR
DGK 6 5    ZGK
.MODEL ZF   D (IS=1.6F IBV=900N BV=100 RS=3.33MEG)
.MODEL ZR   D (IS=1.6F IBV=900N BV=133)
.MODEL ZGK  D (IS=1.6F IBV=900N BV=6)
.MODEL POUT PNP (IS=1.6P BF=1 CJE=418P)
.MODEL NOUT NPN (IS=1.6P BF=100 RC=65M
+ CJE=418P CJC=83.7P TF=214N TR=68U)
.ENDS XC106A

* C106B  SCR  A G K  MCE  7-17-95
*MCE  200V  4A  pkg:TO-225AA
.SUBCKT XC106B   1 2 3
QP  6 4 1  POUT OFF
QN  4 6 5  NOUT OFF
RF  6 4    44.4MEG
RR  1 4    29.6MEG
RGK 6 5    1.12K
RG  2 6    46.2
RK  3 5    16.2M
DF  6 4    ZF
DR  1 4    ZR
DGK 6 5    ZGK
.MODEL ZF   D (IS=1.6F IBV=900N BV=200 RS=6.67MEG)
.MODEL ZR   D (IS=1.6F IBV=900N BV=266)
.MODEL ZGK  D (IS=1.6F IBV=900N BV=6)
.MODEL POUT PNP (IS=1.6P BF=1 CJE=418P)
.MODEL NOUT NPN (IS=1.6P BF=100 RC=65M
+ CJE=418P CJC=83.7P TF=214N TR=68U)
.ENDS XC106B

* C106D  SCR  A G K  MCE  7-17-95
*MCE  400V  4A  pkg:TO-225AA
.SUBCKT XC106D   1 2 3
QP  6 4 1  POUT OFF
QN  4 6 5  NOUT OFF
RF  6 4    88.9MEG
RR  1 4    59.2MEG
RGK 6 5    1.12K
RG  2 6    46.2
RK  3 5    16.2M
DF  6 4    ZF
DR  1 4    ZR
DGK 6 5    ZGK
.MODEL ZF   D (IS=1.6F IBV=900N BV=400 RS=13.3MEG)
.MODEL ZR   D (IS=1.6F IBV=900N BV=533)
.MODEL ZGK  D (IS=1.6F IBV=900N BV=6)
.MODEL POUT PNP (IS=1.6P BF=1 CJE=418P)
.MODEL NOUT NPN (IS=1.6P BF=100 RC=65M
+ CJE=418P CJC=83.7P TF=214N TR=68U)
.ENDS XC106D

* C106F  SCR  A G K  MCE  7-17-95
*MCE  50V  4A  pkg:TO-225AA
.SUBCKT XC106F   1 2 3
QP  6 4 1  POUT OFF
QN  4 6 5  NOUT OFF
RF  6 4    11.1MEG
RR  1 4    7.4MEG
RGK 6 5    1.12K
RG  2 6    46.2
RK  3 5    16.2M
DF  6 4    ZF
DR  1 4    ZR
DGK 6 5    ZGK
.MODEL ZF   D (IS=1.6F IBV=900N BV=50 RS=1.66MEG)
.MODEL ZR   D (IS=1.6F IBV=900N BV=66.6)
.MODEL ZGK  D (IS=1.6F IBV=900N BV=6)
.MODEL POUT PNP (IS=1.6P BF=1 CJE=418P)
.MODEL NOUT NPN (IS=1.6P BF=100 RC=65M
+ CJE=418P CJC=83.7P TF=214N TR=68U)
.ENDS XC106F

* C106M  SCR  A G K  MCE  7-17-95
*MCE 600V  4A  pkg:TO-225AA
.SUBCKT XC106M   1 2 3
QP  6 4 1  POUT OFF
QN  4 6 5  NOUT OFF
RF  6 4    133MEG
RR  1 4    88.9MEG
RGK 6 5    1.12K
RG  2 6    46.2
RK  3 5    16.2M
DF  6 4    ZF
DR  1 4    ZR
DGK 6 5    ZGK
.MODEL ZF   D (IS=1.6F IBV=900N BV=600 RS=20MEG)
.MODEL ZR   D (IS=1.6F IBV=900N BV=800)
.MODEL ZGK  D (IS=1.6F IBV=900N BV=6)
.MODEL POUT PNP (IS=1.6P BF=1 CJE=418P)
.MODEL NOUT NPN (IS=1.6P BF=100 RC=65M
+ CJE=418P CJC=83.7P TF=214N TR=68U)
.ENDS XC106M

*GE     A G K
.SUBCKT XC149M10 1 2 3
RGATE 2 5 20
VGS 5 1 0
SCRSW 3 4 6 1 SWMOD
CSWITCH 3 4 450PF
VAS 4 1 0
FSENSE 1 6 POLY(2) VGS VAS 0 50 11
RSENSE 6 1 1
CR 6 1 10UF
.MODEL SWMOD SW RON=0.0125 ROFF=103000 VT=1 VH=0
*.MODEL SSCR VSWITCH (RON=0.0125 ROFF=103000 VON=1 VOFF=0)
.ENDS XC149M10


* MCR100-3  SCR  A G K  MCE  7-17-95
*MCE MCR100-3 100V  800mA  pkg:TO-226AA
.SUBCKT XMCR1003 1 2 3
QP  6 4 1  POUT OFF
QN  4 6 5  NOUT OFF
RF  6 4    20MEG
RR  1 4    13.3MEG
RGK 6 5    6.25K
RG  2 6    9.17
RK  3 5    81.3M
DF  6 4    ZF
DR  1 4    ZR
DGK 6 5    ZGK
.MODEL ZF   D (IS=.32F IBV=1U BV=100 RS=3MEG)
.MODEL ZR   D (IS=.32F IBV=1U BV=133)
.MODEL ZGK  D (IS=.32F IBV=1U BV=5)
.MODEL POUT PNP (IS=320F BF=1 CJE=67P)
.MODEL NOUT NPN (IS=320F BF=100 RC=.325
+ CJE=67P CJC=13.4P TF=56.6N TR=8.06U)
.ENDS XMCR1003

* MCR100-4  SCR  A G K  MCE  7-17-95
*MCE MCR100-4 200V  800mA  pkg:TO-226AA
.SUBCKT XMCR1004 1 2 3
QP  6 4 1  POUT OFF
QN  4 6 5  NOUT OFF
RF  6 4    40MEG
RR  1 4    26.6MEG
RGK 6 5    6.25K
RG  2 6    9.17
RK  3 5    81.3M
DF  6 4    ZF
DR  1 4    ZR
DGK 6 5    ZGK
.MODEL ZF   D (IS=.32F IBV=1U BV=200 RS=6MEG)
.MODEL ZR   D (IS=.32F IBV=1U BV=266)
.MODEL ZGK  D (IS=.32F IBV=1U BV=5)
.MODEL POUT PNP (IS=320F BF=1 CJE=67P)
.MODEL NOUT NPN (IS=320F BF=100 RC=.325
+ CJE=67P CJC=13.4P TF=56.6N TR=8.06U)
.ENDS XMCR1004

* MCR100-6  SCR  A G K  MCE  7-17-95
*MCE MCR100-6 400V  800mA  pkg:TO-226AA
.SUBCKT XMCR1006 1 2 3
QP  6 4 1  POUT OFF
QN  4 6 5  NOUT OFF
RF  6 4    80MEG
RR  1 4    53.3MEG
RGK 6 5    6.25K
RG  2 6    9.17
RK  3 5    81.3M
DF  6 4    ZF
DR  1 4    ZR
DGK 6 5    ZGK
.MODEL ZF   D (IS=.32F IBV=1U BV=400 RS=12MEG)
.MODEL ZR   D (IS=.32F IBV=1U BV=533)
.MODEL ZGK  D (IS=.32F IBV=1U BV=5)
.MODEL POUT PNP (IS=320F BF=1 CJE=67P)
.MODEL NOUT NPN (IS=320F BF=100 RC=.325
+ CJE=67P CJC=13.4P TF=56.6N TR=8.06U)
.ENDS XMCR1006

* MCR100-8  SCR  A G K  MCE  7-17-95
*MCE MCR100-8 600V  800mA  pkg:TO-226AA
.SUBCKT XMCR1008 1 2 3
*    TERMINALS:  A G K
*  600 Volt  .8 Amp  SCR  07-17-1995
QP  6 4 1  POUT OFF
QN  4 6 5  NOUT OFF
RF  6 4    120MEG
RR  1 4    80MEG
RGK 6 5    6.25K
RG  2 6    9.17
RK  3 5    81.3M
DF  6 4    ZF
DR  1 4    ZR
DGK 6 5    ZGK
.MODEL ZF   D (IS=.32F IBV=1U BV=600 RS=18MEG)
.MODEL ZR   D (IS=.32F IBV=1U BV=800)
.MODEL ZGK  D (IS=.32F IBV=1U BV=5)
.MODEL POUT PNP (IS=320F BF=1 CJE=67P)
.MODEL NOUT NPN (IS=320F BF=100 RC=.325
+ CJE=67P CJC=13.4P TF=56.6N TR=8.06U)
.ENDS XMCR1008

* MCR106-2  SCR  A G K  MCE  7-17-95
*MCE MCR106-2  60V  4A  pkg:TO-225AA
.SUBCKT XMCR1062 1 2 3
QP  6 4 1  POUT OFF
QN  4 6 5  NOUT OFF
RF  6 4    15MEG
RR  1 4    10MEG
RGK 6 5    6.25K
RG  2 6    46.2
RK  3 5    16.2M
DF  6 4    ZF
DR  1 4    ZR
DGK 6 5    ZGK
.MODEL ZF   D (IS=1.6F IBV=800N BV=60 RS=2.25MEG)
.MODEL ZR   D (IS=1.6F IBV=800N BV=80)
.MODEL ZGK  D (IS=1.6F IBV=800N BV=6)
.MODEL POUT PNP (IS=1.6P BF=1 CJE=60.3P)
.MODEL NOUT NPN (IS=1.6P BF=100 RC=65M
+ CJE=60.3P CJC=12P TF=126N TR=18U)
.ENDS XMCR1062

* MCR106-3  SCR  A G K  MCE  7-17-95
*MCE MCR106-3  100V  4A  pkg:TO-225AA
.SUBCKT XMCR1063 1 2 3
QP  6 4 1  POUT OFF
QN  4 6 5  NOUT OFF
RF  6 4    25MEG
RR  1 4    16.6MEG
RGK 6 5    6.25K
RG  2 6    46.2
RK  3 5    16.2M
DF  6 4    ZF
DR  1 4    ZR
DGK 6 5    ZGK
.MODEL ZF   D (IS=1.6F IBV=800N BV=100 RS=3.75MEG)
.MODEL ZR   D (IS=1.6F IBV=800N BV=133)
.MODEL ZGK  D (IS=1.6F IBV=800N BV=6)
.MODEL POUT PNP (IS=1.6P BF=1 CJE=60.3P)
.MODEL NOUT NPN (IS=1.6P BF=100 RC=65M
+ CJE=60.3P CJC=12P TF=126N TR=18U)
.ENDS XMCR1063

* MCR106-4  SCR  A G K  MCE  7-17-95
*MCE MCR106-4  200V  4A  pkg:TO-225AA
.SUBCKT XMCR1064 1 2 3
QP  6 4 1  POUT OFF
QN  4 6 5  NOUT OFF
RF  6 4    50MEG
RR  1 4    33.3MEG
RGK 6 5    6.25K
RG  2 6    46.2
RK  3 5    16.2M
DF  6 4    ZF
DR  1 4    ZR
DGK 6 5    ZGK
.MODEL ZF   D (IS=1.6F IBV=800N BV=200 RS=7.5MEG)
.MODEL ZR   D (IS=1.6F IBV=800N BV=266)
.MODEL ZGK  D (IS=1.6F IBV=800N BV=6)
.MODEL POUT PNP (IS=1.6P BF=1 CJE=60.3P)
.MODEL NOUT NPN (IS=1.6P BF=100 RC=65M
+ CJE=60.3P CJC=12P TF=126N TR=18U)
.ENDS XMCR1064

* MCR106-6  SCR  A G K  MCE  7-17-95
*MCE MCR106-6  400V  4A  pkg:TO-225AA
.SUBCKT XMRC1066 1 2 3
QP  6 4 1  POUT OFF
QN  4 6 5  NOUT OFF
RF  6 4    100MEG
RR  1 4    66.6MEG
RGK 6 5    6.25K
RG  2 6    46.2
RK  3 5    16.2M
DF  6 4    ZF
DR  1 4    ZR
DGK 6 5    ZGK
.MODEL ZF   D (IS=1.6F IBV=800N BV=400 RS=15MEG)
.MODEL ZR   D (IS=1.6F IBV=800N BV=533)
.MODEL ZGK  D (IS=1.6F IBV=800N BV=6)
.MODEL POUT PNP (IS=1.6P BF=1 CJE=60.3P)
.MODEL NOUT NPN (IS=1.6P BF=100 RC=65M
+ CJE=60.3P CJC=12P TF=126N TR=18U)
.ENDS XMRC1066

* MCR106-8  SCR  A G K  MCE  7-17-95
*MCE MCR106-8  600V  4A  pkg:TO-225AA
.SUBCKT XMRC1068 1 2 3
QP  6 4 1  POUT OFF
QN  4 6 5  NOUT OFF
RF  6 4    150MEG
RR  1 4    100MEG
RGK 6 5    6.25K
RG  2 6    46.2
RK  3 5    16.2M
DF  6 4    ZF
DR  1 4    ZR
DGK 6 5    ZGK
.MODEL ZF   D (IS=1.6F IBV=800N BV=600 RS=22.5MEG)
.MODEL ZR   D (IS=1.6F IBV=800N BV=800)
.MODEL ZGK  D (IS=1.6F IBV=800N BV=6)
.MODEL POUT PNP (IS=1.6P BF=1 CJE=60.3P)
.MODEL NOUT NPN (IS=1.6P BF=100 RC=65M
+ CJE=60.3P CJC=12P TF=126N TR=18U)
.ENDS XMRC1068



* SCR behavioral model
* Duane Hanselman 2007-08-21
.subckt SCRB A G C
D1 n1 G D
WSCR A n1 V1 Iswitch
V1 G C 0
.model D D
.model Iswitch CSW(Ron=0.1 Roff=1MEG It=1m)
.ends
*				Anode
*				| Cathode
*				|	| Trigger
*				|  	|	|
.subckt Scr_Edn	1	2	3
*
* Models used by the SCR model:
.model STH VSwitch	(ROn=0.1,VOff=0.5)
.model DLG D	(Rs =25m)
*
* We assume that the SCR in the on state is equivalent to 0.1 ohm:
SSCR	1 4 5 0 STH
VSCR	4 2	0V
*
* Trigger to cathode impedance is a 1k ohm resistance  for simplification:
RTrig	3 2 1k
*
* The following circuit locks in the on state when a 1mA current flows
* through the gate to the cathode with a positive anode to cathode voltage.
* This circuit locks in the off state when the current through ths SCR tends
* to become negative:
VPlus 6 0 2V
SiTrig	6 5 3 2	STH
CState 5 0 	1uF IC=0
DLogic 5 8	DLG
HCur 8 0 poly(1) VSCR 1 10000
*
* The potential of node 5 reflects the state of the SCR. It is less than 1V
* for the off state and between 1V and 2V in the on state.
.ends



**********
* Copyright Intusoft 1992-1997
* All Rights Reserved
**********
**********
*SRC=2N2322;SN2322;SCRs;General;25V 1.6A
*SYM=SCR
*HELP issyntax.hlp "SCRs"
.SUBCKT SN2322 1 2 3
* TERMINALS: A G K
* Unitrode 2N2322 25 Volt 1.6 Amp SCR 09-03-1991
QP 6 4 1 POUT; OFF
QN 4 6 3 NOUT; OFF
RF 6 4 500MEG
RR 1 4 333MEG
RG 6 3 2.75K
RGS 2 6 3.62
DF 6 4 ZF
DR 1 4 ZR
DG 6 3 ZG
.MODEL ZF D (IS=.64F IBV=10N BV=25 RS=75MEG)
.MODEL ZR D (IS=.64F IBV=10N BV=33.3)
.MODEL ZG D (IS=.64F IBV=10N BV=5)
.MODEL POUT PNP (IS=640F BF=1 CJE=2.41N TF=179N TR=34U)
.MODEL NOUT NPN (IS=640F BF=100 RE=.181 RC=.181
+ CJE=2.41N CJC=482P TF=179N TR=34U)
.ENDS
**********
*SRC=2N3027;SN3027;SCRs;General;30V .5A
*SYM=SCR
*HELP issyntax.hlp "SCRs"
.SUBCKT SN3027 1 2 3
* TERMINALS: A G K
* Unitrode 2N3027 30 Volt .5 Amp SCR 08-26-1993
QP 6 4 1 POUT; OFF
QN 4 6 5 NOUT; OFF
RF 6 4 6003MEG
RR 1 4 4000MEG
RGK 6 5 6.07K
RG 2 6 37.9
RK 3 5 .1
DF 6 4 ZF
DR 1 4 ZR
DGK 6 5 ZGK
.MODEL ZF D (IS=.2F IBV=1N BV=30 RS=900MEG)
.MODEL ZR D (IS=.2F IBV=1N BV=40)
.MODEL ZGK D (IS=.2F IBV=1N BV=5)
.MODEL POUT PNP (IS=200F BF=1 CJE=293P)
.MODEL NOUT NPN (IS=200F BF=100 RC=.4 CJE=293P
+ CJC=58.6P TF=44.7N TR=6.37U)
.ENDS
**********
*SRC=2N5724;SN5724;SCRs;General;60V 1.6A
*SYM=SCR
*HELP issyntax.hlp "SCRs"
.SUBCKT SN5724 1 2 3
* TERMINALS: A G K
* Unitrode 2N5724 60 Volt 1.6 Amp SCR 08-26-1993
QP 6 4 1 POUT; OFF
QN 4 6 5 NOUT; OFF
RF 6 4 1.20E+10
RR 1 4 8001MEG
RGK 6 5 15.937k
RG 2 6 37.9
RK 3 5 93.7M
DF 6 4 ZF
DR 1 4 ZR
DGK 6 5 ZGK
.MODEL ZF D (IS=.64F IBV=1N BV=60 RS=1800MEG)
.MODEL ZR D (IS=.64F IBV=1N BV=80)
.MODEL ZGK D (IS=.64F IBV=1N BV=6)
.MODEL POUT PNP (IS=640F BF=1 CJE=268P)
.MODEL NOUT NPN (IS=640F BF=100 RC=.375
+ CJE=268P CJC=53.6P TF=80.1N TR=25.5U)
.ENDS
**********
*SRC=2N2574;SN2574;SCRs;General;50V 25A
*SYM=SCR
*HELP issyntax.hlp "SCRs"
.SUBCKT SN2574 1 2 3
* TERMINALS: A G K
* Motorola 2N2574 50 Volt 25 Amp SCR 08-25-1993
QP 6 4 1 POUT; OFF
QN 4 6 5 NOUT; OFF
RF 6 4 10MEG
RR 1 4 6.66MEG
RGK 6 5 36
RG 2 6 4.62
RK 3 5 2.6M
DF 6 4 ZF
DR 1 4 ZR
DGK 6 5 ZGK
.MODEL ZF D (IS=10F IBV=1U BV=50 RS=1.5MEG)
.MODEL ZR D (IS=10F IBV=1U BV=66.6)
.MODEL ZGK D (IS=10F IBV=1U BV=5)
.MODEL POUT PNP (IS=10P BF=1 CJE=2.09N)
.MODEL NOUT NPN (IS=10P BF=100 RC=10.4M
+ CJE=2.09N CJC=418P TF=316N TR=45.1U)
.ENDS
**********
*SRC=BTW38-600R;BTW38;SCRs;General;600V 16A
*SYM=SCR
*HELP issyntax.hlp "SCRs"
.SUBCKT BTW38 1 2 3
* TERMINALS: A G K
* Philips 600 Volt 16 Amp SCR 09-04-1991
QP 6 4 1 POUT; OFF
QN 4 6 3 NOUT; OFF
RF 6 4 400K
RR 1 4 266K
RG 6 3 24
RGS 2 6 .2
DF 6 4 ZF
DR 1 4 ZR
DG 6 3 ZG
.MODEL ZF D (IS=6.4F IBV=300U BV=600 RS=60K)
.MODEL ZR D (IS=6.4F IBV=300U BV=800)
.MODEL ZG D (IS=6.4F IBV=300U BV=5)
.MODEL POUT PNP (IS=6.4P BF=1 CJE=19.4N TF=228N TR=59.5U)
.MODEL NOUT NPN (IS=6.4P BF=100 RE=10M RC=10M
+ CJE=19.4N CJC=3.89N TF=228N TR=59.5U)
.ENDS
**********
*SRC=C180A;C180;SCRs;General;100V 150A
*SYM=SCR
*HELP issyntax.hlp "SCRs"
.SUBCKT C180 1 2 3
* TERMINALS: A G K
* Powerex 100 Volt 235 Amp SCR 08-26-1993
QP 6 4 1 POUT; OFF
QN 4 6 5 NOUT; OFF
RF 6 4 10K
RR 1 4 6.66K
RGK 6 5 4.5
RG 2 6 .699
RK 3 5 425U
DF 6 4 ZF
DR 1 4 ZR
DGK 6 5 ZGK
.MODEL ZF D (IS=94F IBV=2M BV=100 RS=1.5K)
.MODEL ZR D (IS=94F IBV=2M BV=133)
.MODEL ZGK D (IS=94F IBV=2M BV=5)
.MODEL POUT PNP (IS=94P BF=1 CJE=19.6N)
.MODEL NOUT NPN (IS=94P BF=100 RC=1.7M
+ CJE=19.6N CJC=3.93N TF=179N TR=170U)
.ENDS
**********
*SRC=2N3884;SN3884;SCRs;General;50V 50A
*SYM=SCR
*HELP issyntax.hlp "SCRs"
.SUBCKT SN3884 1 2 3
* TERMINALS: A G K
* Powerex 50 Volt 275 Amp SCR 08-26-1993
QP 6 4 1 POUT; OFF
QN 4 6 5 NOUT; OFF
RF 6 4 4K
RR 1 4 2.66K
RGK 6 5 5
RG 2 6 2.25
RK 3 5 315U
DF 6 4 ZF
DR 1 4 ZR
DGK 6 5 ZGK
.MODEL ZF D (IS=110F IBV=2.5M BV=50 RS=600)
.MODEL ZR D (IS=110F IBV=2.5M BV=66.6)
.MODEL ZGK D (IS=110F IBV=2.5M BV=5)
.MODEL POUT PNP (IS=110P BF=1 CJE=1.67N)
.MODEL NOUT NPN (IS=110P BF=100 RC=1.26M
+ CJE=1.67N CJC=335P TF=1.05U TR=170U)
.ENDS
**********
*SRC=T76004;T76004;SCRs;General;400V 300A
*SYM=SCR
*HELP issyntax.hlp "SCRs"
.SUBCKT T76004 1 2 3
* TERMINALS: A G K
* Powerex 400 Volt 470 Amp SCR 08-26-1993
QP 6 4 1 POUT; OFF
QN 4 6 5 NOUT; OFF
RF 6 4 26.6K
RR 1 4 17.7K
RGK 6 5 3.5
RG 2 6 2
RK 3 5 369U
DF 6 4 ZF
DR 1 4 ZR
DGK 6 5 ZGK
.MODEL ZF D (IS=188F IBV=3M BV=400 RS=4K)
.MODEL ZR D (IS=188F IBV=3M BV=533)
.MODEL ZGK D (IS=188F IBV=3M BV=5)
.MODEL POUT PNP (IS=188P BF=1 CJE=20.1N)
.MODEL NOUT NPN (IS=188P BF=100 RC=1.47M
+ CJE=20.1N CJC=4.02N TF=1.25U TR=255U)
.ENDS
**********
*SRC=S4060A;S4060A;SCRs;General;100V 10A
*SYM=SCR
*HELP issyntax.hlp "SCRs"
.SUBCKT S4060A 1 2 3
* TERMINALS: A G K
* RCA S4060A 100 Volt 10 Amp SCR 08-26-1993
QP 6 4 1 POUT; OFF
QN 4 6 5 NOUT; OFF
RF 6 4 4MEG
RR 1 4 2.66MEG
RGK 6 5 950
RG 2 6 46.2
RK 3 5 16.5M
DF 6 4 ZF
DR 1 4 ZR
DGK 6 5 ZGK
.MODEL ZF D (IS=4F IBV=5U BV=100 RS=600K)
.MODEL ZR D (IS=4F IBV=5U BV=133)
.MODEL ZGK D (IS=4F IBV=5U BV=6)
.MODEL POUT PNP (IS=4P BF=1 CJE=25.1N)
.MODEL NOUT NPN (IS=4P BF=100 RC=26M
+ CJE=25.1N CJC=5.02N TF=200N TR=85U)
.ENDS
**********
*SRC=S3701M;S3701M;SCRs;General;600V 5A
*SYM=SCR
*HELP issyntax.hlp "SCRs"
.SUBCKT S3701M 1 2 3
* TERMINALS: A G K
* RCA S3701M 600 Volt 5 Amp SCR 09-04-1991
QP 6 4 1 POUT; OFF
QN 4 6 3 NOUT; OFF
RF 6 4 3MEG
RR 1 4 2MEG
RG 6 3 97.5
RGS 2 6 .233
DF 6 4 ZF
DR 1 4 ZR
DG 6 3 ZG
.MODEL ZF D (IS=2F IBV=40U BV=600 RS=450K)
.MODEL ZR D (IS=2F IBV=40U BV=800)
.MODEL ZG D (IS=2F IBV=40U BV=5)
.MODEL POUT PNP (IS=2P BF=1 CJE=4.54N TF=125N TR=6.8U)
.MODEL NOUT NPN (IS=2P BF=100 RE=11.6M RC=11.6M
+ CJE=4.54N CJC=908P TF=125N TR=6.8U)
.ENDS
**********
*SRC=2N6397;SN6397;SCRs;General;450V 12A
*SYM=SCR
*HELP issyntax.hlp "SCRs"
.SUBCKT SN6397 1 2 3
* RCA 2N6397 SCR...ANODE GATE CATHODE
Q1 2 4 1 QPSCR AREA=.67; OFF
Q2 4 2 3 QNSCR AREA=.67
Q3 5 4 1 QPSCR AREA=.33; OFF
Q4 4 5 3 QNSCR AREA=.33
RBN 2 5 40
.MODEL QNSCR NPN(TF=400NS TR=1.6US CJC=75PF CJE=175PF XTB=2.5
+ IS=1E-14 ISE=3E-9 NE=2 BF=100 BR=25 ISC=3E-9 NC=2)
.MODEL QPSCR PNP(TF=90NS TR=180NS CJC=75PF CJE=80PF XTB=2.5
+ IS=1E-14 ISE=3E-9 NE=2 BF=50 BR=25 ISC=3E-9 NC=2 RE=.03)
.ENDS
**********
*SRC=MCR22-2;MCR222;SCRs;General;50V 1.5A
*SYM=SCR
*HELP issyntax.hlp "SCRs"
.SUBCKT MCR222 1 2 3
* MCR22-2 MOTOROLA SCR...ANODE GATE CATHODE
* 1.5 AMPS RMS 50 VOLTS
Q1 2 4 1 QPSCR AREA=.67; OFF
Q2 4 2 3 QNSCR AREA=.67
Q3 5 4 1 QPSCR AREA=.33; OFF
Q4 4 5 3 QNSCR AREA=.33
RBN 2 5 4800
.MODEL QNSCR NPN(TF=1US TR=3.5US CJC=10PF CJE=15PF XTB=2.5
+ IS=1E-15 ISE=3E-10 NE=2 BF=75 BR=25 ISC=3E-10 NC=2 )
.MODEL QPSCR PNP(TF=500NS TR=1US CJC=10PF CJE=16PF XTB=2.5
+ IS=1E-15 ISE=3E-10 NE=2 BF=75 BR=25 ISC=3E-10 NC=2 RE=.03)
.ENDS
**********
*SRC=2N4870;UN4870;UJTs;35V 300mW;
*SYM=UJT
* 2N4870 PN Unijunction Transistor
*HELP issyntax.hlp "SCRs"
.SUBCKT UN4870 1 2 3
* Connections Emitter Base1 Base2
* Motorola IP=.3U IV=4.75M VB1(sat)=3.28 Rbb=5.23K Vob1=3.26 n=.57
DE 1 4 EMITTER
VE 4 5 DC 0
HVE 6 0 VE 1K
RVE 0 6 1MEG
GBB 5 7 POLY(2) 5 7 6 0 0 .333M 0 0 7.5M
CBB 5 7 35P
RB1 7 2 41.0 RMOD
RB2 3 5 2.19K RMOD
.MODEL RMOD R TC1=.015
.MODEL EMITTER D (IS=21.3P N=1.7)
.ENDS
**********
*SRC=2N4871;UN4871;UJTs;35V 300mW;
*SYM=UJT
* 2N4871 PN Unijunction Transistor
*HELP issyntax.hlp "SCRs"
.SUBCKT UN4871 1 2 3
* Connections Emitter Base1 Base2
* Motorola IP=.3U IV=5.5M VB1(sat)=1.87 Rbb=7.6K Vob1=5.05 n=.522
DE 1 4 EMITTER
VE 4 5 DC 0
HVE 6 0 VE 1K
RVE 0 6 1MEG
GBB 5 7 POLY(2) 5 7 6 0 0 .25M 0 0 7.5M
CBB 5 7 35P
RB1 7 2 15.0 RMOD
RB2 3 5 3.59K RMOD
.MODEL RMOD R TC1=.015
.MODEL EMITTER D (IS=21.3P N=1.7)
.ENDS
**********
*SRC=2N4851;UN4851;UJTs;35V 300mW;
*SYM=UJT
* 2N4851 PN Unijunction Transistor
*HELP issyntax.hlp "SCRs"
.SUBCKT UN4851 1 2 3
* Connections Emitter Base1 Base2
DE 1 4 EMITTER
VE 4 5 DC 0
HVE 6 0 VE 1K
RVE 0 6 1MEG
GBB 5 7 POLY(2) 5 7 6 0 0 .25M 0 0 7.5M
CBB 5 7 35P
RB1 7 2 381.5 RMOD
RB2 3 5 2.518K RMOD
.MODEL RMOD R TC1=.01
.MODEL EMITTER D (IS=6.45P N=1.7 IBV=.01U)
+ CJO=10P TT=144N)
.ENDS
**********
*SRC=2N2646;UN2646;UJTS;35V 300mW;
*SYM=UJT
*HELP issyntax.hlp "SCRs"
.SUBCKT UN2646 1 2 3
*Connections Emitter Base1 Base2
* Motorola IP=.3U IV=5.25M VB1(sat)=3.21 Rbb=6.1K Vob1=3.6
DE 1 4 EMITTER
VE 4 5 DC 0
HVE 6 0 VE 1K
RVE 0 6 1MEG
GBB 5 7 POLY(2) 5 7 6 0 0 .28M 0 0 5.75M
CBB 5 7 35P
RB1 7 2 38.15 RMOD
RB2 3 5 2.518K RMOD
.MODEL RMOD R TC1=.01
.MODEL EMITTER D (IS=21.3P N=1.8)
.ENDS
**********